*SPEF "ieee 1481-1999"
*DESIGN "gcd"
*DATE "21:06:52 Monday May 19, 2025"
*VENDOR "The OpenROAD Project"
*PROGRAM "OpenROAD"
*VERSION "v2.0-19576-gec1bf1a13"
*DESIGN_FLOW "NAME_SCOPE LOCAL" "PIN_CAP NONE"
*DIVIDER /
*DELIMITER :
*BUS_DELIMITER []
*T_UNIT 1 NS
*C_UNIT 1 PF
*R_UNIT 1 OHM
*L_UNIT 1 HENRY

*NAME_MAP
*1 _000_
*2 _001_
*3 _002_
*4 _003_
*5 _004_
*6 _005_
*7 _006_
*8 _007_
*9 _008_
*10 _009_
*11 _010_
*12 _011_
*13 _012_
*14 _013_
*15 _014_
*16 _015_
*17 _016_
*18 _017_
*19 _018_
*20 _019_
*21 _020_
*22 _021_
*23 _022_
*24 _023_
*25 _024_
*26 _025_
*27 _026_
*28 _027_
*29 _028_
*30 _029_
*31 _030_
*32 _031_
*33 _032_
*34 _033_
*35 _034_
*36 _035_
*37 _036_
*38 _037_
*39 _038_
*40 _039_
*41 _040_
*42 _041_
*43 _042_
*44 _043_
*45 _044_
*46 _045_
*47 _046_
*48 _047_
*49 _048_
*50 _049_
*51 _050_
*52 _051_
*53 _052_
*54 _053_
*55 _054_
*56 _055_
*57 _056_
*58 _057_
*59 _058_
*60 _059_
*61 _060_
*62 _061_
*63 _062_
*64 _063_
*65 _064_
*66 _065_
*67 _066_
*68 _067_
*69 _068_
*70 _069_
*71 _070_
*72 _071_
*73 _072_
*74 _073_
*75 _074_
*76 _075_
*77 _076_
*78 _077_
*79 _078_
*80 _079_
*81 _080_
*82 _081_
*83 _082_
*84 _083_
*85 _084_
*86 _085_
*87 _086_
*88 _087_
*89 _088_
*90 _089_
*91 _090_
*92 _091_
*93 _092_
*94 _093_
*95 _094_
*96 _095_
*97 _096_
*98 _097_
*99 _098_
*100 _099_
*101 _100_
*102 _101_
*103 _102_
*104 _103_
*105 _104_
*106 _105_
*107 _106_
*108 _107_
*109 _108_
*110 _109_
*111 _110_
*112 _111_
*113 _112_
*114 _113_
*115 _114_
*116 _115_
*117 _116_
*118 _117_
*119 _118_
*120 _119_
*121 _120_
*122 _121_
*123 _122_
*124 _123_
*125 _124_
*126 _125_
*127 _126_
*128 _127_
*129 _128_
*130 _129_
*131 _130_
*132 _131_
*133 _132_
*134 _133_
*135 _134_
*136 _135_
*137 _136_
*138 _137_
*139 _138_
*140 _139_
*141 _140_
*142 _141_
*143 _142_
*144 _143_
*145 _144_
*146 _145_
*147 _146_
*148 _147_
*149 _148_
*150 _149_
*151 _150_
*152 _151_
*153 _152_
*154 _153_
*155 _154_
*156 _155_
*157 _156_
*158 _157_
*159 _158_
*160 _159_
*161 _160_
*162 _161_
*163 _162_
*164 _163_
*165 _164_
*166 _165_
*167 _166_
*168 _167_
*169 _168_
*170 _169_
*171 _170_
*172 _171_
*173 _172_
*174 _173_
*175 _174_
*176 _175_
*177 _176_
*178 _177_
*179 _178_
*180 _179_
*181 _180_
*182 _181_
*183 _182_
*184 _183_
*185 _184_
*186 _185_
*187 _186_
*188 _187_
*189 _188_
*190 _189_
*191 _190_
*192 _191_
*193 _192_
*194 _193_
*195 _194_
*196 _195_
*197 _196_
*198 _197_
*199 _198_
*200 _199_
*201 _200_
*202 _201_
*203 _202_
*204 _203_
*205 _204_
*206 _205_
*207 _206_
*208 _207_
*209 _208_
*210 _209_
*211 _210_
*212 _211_
*213 _212_
*214 _213_
*215 _214_
*216 _215_
*217 _216_
*218 _217_
*219 _218_
*220 _219_
*221 _220_
*222 _221_
*223 _222_
*224 _223_
*225 _224_
*226 _225_
*227 _226_
*228 _227_
*229 _228_
*230 _229_
*231 _230_
*232 _231_
*233 _232_
*234 _233_
*235 _234_
*236 _235_
*237 _236_
*238 _237_
*239 _238_
*240 _239_
*241 _240_
*242 _241_
*243 _242_
*244 _243_
*245 _244_
*246 _245_
*247 _246_
*248 _247_
*249 _248_
*250 _249_
*251 _250_
*252 _251_
*253 _252_
*254 _253_
*255 _254_
*256 _255_
*257 _256_
*258 _257_
*259 _258_
*260 _259_
*261 _260_
*262 _261_
*263 _262_
*264 _263_
*265 _264_
*266 _265_
*267 _266_
*268 _267_
*269 _268_
*270 _269_
*271 _270_
*272 _271_
*273 _272_
*274 _273_
*275 _274_
*276 _275_
*277 _276_
*278 _277_
*279 _278_
*280 _279_
*281 _280_
*282 _281_
*283 _282_
*284 _283_
*285 _284_
*286 _285_
*287 _286_
*288 _287_
*289 _288_
*290 _289_
*291 _290_
*292 _291_
*293 _292_
*294 _293_
*295 _294_
*296 _295_
*297 _296_
*298 _297_
*299 _298_
*300 _299_
*301 _300_
*302 _301_
*303 _302_
*304 _303_
*305 _304_
*306 _305_
*307 _306_
*308 _307_
*309 _308_
*310 _309_
*311 _310_
*312 _311_
*313 _312_
*314 _313_
*315 _314_
*316 _315_
*317 _316_
*318 _317_
*319 _318_
*320 _319_
*321 _320_
*322 _321_
*323 _322_
*324 _323_
*325 _324_
*326 _325_
*327 _326_
*328 _327_
*329 _328_
*330 _329_
*331 _330_
*332 _331_
*333 _332_
*334 _333_
*335 _334_
*336 _335_
*337 _336_
*338 _337_
*339 _338_
*340 _339_
*341 _340_
*342 _341_
*343 _342_
*344 _343_
*345 _344_
*346 _345_
*347 _346_
*348 _347_
*349 _348_
*350 _349_
*351 _350_
*352 _351_
*353 _352_
*354 _353_
*355 _354_
*356 _355_
*357 _356_
*358 _357_
*359 _358_
*360 _359_
*361 _360_
*362 _361_
*363 _362_
*364 _363_
*365 _364_
*366 _365_
*367 _366_
*368 _367_
*369 _368_
*370 _369_
*371 _370_
*372 _371_
*373 _372_
*374 _373_
*375 _374_
*376 _375_
*377 _376_
*378 _377_
*379 _378_
*380 _379_
*381 _380_
*382 _381_
*383 _382_
*384 _383_
*385 _384_
*386 _385_
*387 _386_
*388 _387_
*389 _388_
*390 _389_
*391 _390_
*392 _391_
*393 _392_
*394 _393_
*395 _394_
*396 _395_
*397 _396_
*398 _397_
*399 _398_
*400 _399_
*401 _400_
*402 _401_
*403 _402_
*404 _403_
*405 _404_
*406 _405_
*407 _406_
*408 _407_
*409 _408_
*410 _409_
*411 _410_
*412 _411_
*413 _412_
*414 _413_
*415 _414_
*416 _415_
*417 _416_
*418 _417_
*419 _418_
*420 _419_
*421 _420_
*422 _421_
*423 _422_
*424 _423_
*425 _424_
*426 _425_
*427 _426_
*428 _427_
*429 _428_
*430 _429_
*431 _430_
*432 _431_
*433 _432_
*434 _433_
*435 _434_
*436 _435_
*437 _436_
*438 _437_
*439 _438_
*440 _439_
*441 _440_
*442 _441_
*443 _442_
*444 _443_
*445 _444_
*446 _445_
*447 _446_
*448 _447_
*449 _448_
*450 _449_
*451 _450_
*452 _451_
*453 _452_
*454 _453_
*455 _454_
*456 _455_
*457 _456_
*458 _457_
*459 _458_
*460 _459_
*461 _460_
*462 _461_
*463 _462_
*464 _463_
*465 _464_
*466 _465_
*467 _466_
*468 _467_
*469 _468_
*470 _469_
*471 _470_
*472 _471_
*473 _472_
*474 _473_
*475 _474_
*476 _475_
*477 _476_
*478 _477_
*479 _478_
*480 _479_
*481 _480_
*482 _481_
*483 _482_
*484 _483_
*485 _484_
*486 _485_
*487 clk
*488 ctrl\.state\.out\[1\]
*489 ctrl\.state\.out\[2\]
*490 dpath\.a_lt_b\$in0\[0\]
*491 dpath\.a_lt_b\$in0\[10\]
*492 dpath\.a_lt_b\$in0\[11\]
*493 dpath\.a_lt_b\$in0\[12\]
*494 dpath\.a_lt_b\$in0\[13\]
*495 dpath\.a_lt_b\$in0\[14\]
*496 dpath\.a_lt_b\$in0\[15\]
*497 dpath\.a_lt_b\$in0\[1\]
*498 dpath\.a_lt_b\$in0\[2\]
*499 dpath\.a_lt_b\$in0\[3\]
*500 dpath\.a_lt_b\$in0\[4\]
*501 dpath\.a_lt_b\$in0\[5\]
*502 dpath\.a_lt_b\$in0\[6\]
*503 dpath\.a_lt_b\$in0\[7\]
*504 dpath\.a_lt_b\$in0\[8\]
*505 dpath\.a_lt_b\$in0\[9\]
*506 dpath\.a_lt_b\$in1\[0\]
*507 dpath\.a_lt_b\$in1\[10\]
*508 dpath\.a_lt_b\$in1\[11\]
*509 dpath\.a_lt_b\$in1\[12\]
*510 dpath\.a_lt_b\$in1\[13\]
*511 dpath\.a_lt_b\$in1\[14\]
*512 dpath\.a_lt_b\$in1\[15\]
*513 dpath\.a_lt_b\$in1\[1\]
*514 dpath\.a_lt_b\$in1\[2\]
*515 dpath\.a_lt_b\$in1\[3\]
*516 dpath\.a_lt_b\$in1\[4\]
*517 dpath\.a_lt_b\$in1\[5\]
*518 dpath\.a_lt_b\$in1\[6\]
*519 dpath\.a_lt_b\$in1\[7\]
*520 dpath\.a_lt_b\$in1\[8\]
*521 dpath\.a_lt_b\$in1\[9\]
*522 req_msg[0]
*523 req_msg[10]
*524 req_msg[11]
*525 req_msg[12]
*526 req_msg[13]
*527 req_msg[14]
*528 req_msg[15]
*529 req_msg[16]
*530 req_msg[17]
*531 req_msg[18]
*532 req_msg[19]
*533 req_msg[1]
*534 req_msg[20]
*535 req_msg[21]
*536 req_msg[22]
*537 req_msg[23]
*538 req_msg[24]
*539 req_msg[25]
*540 req_msg[26]
*541 req_msg[27]
*542 req_msg[28]
*543 req_msg[29]
*544 req_msg[2]
*545 req_msg[30]
*546 req_msg[31]
*547 req_msg[3]
*548 req_msg[4]
*549 req_msg[5]
*550 req_msg[6]
*551 req_msg[7]
*552 req_msg[8]
*553 req_msg[9]
*554 net36
*555 req_val
*556 reset
*557 net37
*558 net38
*559 net39
*560 net40
*561 net41
*562 net42
*563 net43
*564 net44
*565 net45
*566 net46
*567 net47
*568 net48
*569 net49
*570 net50
*571 net51
*572 net52
*573 resp_rdy
*574 net53
*577 net1
*578 net2
*579 net3
*580 net4
*581 net5
*582 net6
*583 net7
*584 net8
*585 net9
*586 net10
*587 net11
*588 net12
*589 net13
*590 net14
*591 net15
*592 net16
*593 net17
*594 net18
*595 net19
*596 net20
*597 net21
*598 net22
*599 net23
*600 net24
*601 net25
*602 net26
*603 net27
*604 net28
*605 net29
*606 net30
*607 net31
*608 net32
*609 net33
*610 net34
*611 net35
*612 req_rdy
*613 resp_msg[0]
*614 resp_msg[10]
*615 resp_msg[11]
*616 resp_msg[12]
*617 resp_msg[13]
*618 resp_msg[14]
*619 resp_msg[15]
*620 resp_msg[1]
*621 resp_msg[2]
*622 resp_msg[3]
*623 resp_msg[4]
*624 resp_msg[5]
*625 resp_msg[6]
*626 resp_msg[7]
*627 resp_msg[8]
*628 resp_msg[9]
*629 resp_val
*630 clknet_0_clk
*631 clknet_2_0__leaf_clk
*632 clknet_2_1__leaf_clk
*633 clknet_2_2__leaf_clk
*634 clknet_2_3__leaf_clk
*635 net54
*636 net55
*637 net56
*638 net57
*639 net58
*640 net59
*641 net60
*642 net61
*643 net71
*644 net72
*645 net75
*646 net76
*647 net77
*648 net91
*649 net96
*650 net102
*651 net66
*652 net74
*653 net89
*654 net90
*655 net92
*656 net93
*657 net94
*658 _486_
*659 _487_
*660 _488_
*661 _489_
*662 _490_
*663 _491_
*664 _492_
*665 _493_
*666 _494_
*667 _495_
*668 _496_
*669 _497_
*670 _498_
*671 _499_
*672 _500_
*673 _501_
*674 _502_
*675 _503_
*676 _504_
*677 _505_
*678 _506_
*679 _507_
*680 _508_
*681 _509_
*682 _510_
*683 _511_
*684 _512_
*685 _513_
*686 _514_
*687 _515_
*688 _516_
*689 _517_
*690 _518_
*691 _519_
*692 _520_
*693 _521_
*694 _522_
*695 _523_
*696 _524_
*697 _525_
*698 _526_
*699 _527_
*700 _528_
*701 _529_
*702 _530_
*703 _531_
*704 _532_
*705 _533_
*706 _534_
*707 _535_
*708 _536_
*709 _537_
*710 _538_
*711 _539_
*712 _540_
*713 _541_
*714 _542_
*715 _543_
*716 _544_
*717 _545_
*718 _546_
*719 _547_
*720 _548_
*721 _549_
*722 _550_
*723 _551_
*724 _552_
*725 _553_
*726 _554_
*727 _555_
*728 _556_
*729 _557_
*730 _558_
*731 _559_
*732 _560_
*733 _561_
*734 _562_
*735 _563_
*736 _564_
*737 _565_
*738 _566_
*739 _567_
*740 _568_
*741 _569_
*742 _570_
*743 _571_
*744 _572_
*745 _573_
*746 _574_
*747 _575_
*748 _576_
*749 _577_
*750 _578_
*751 _579_
*752 _580_
*753 _581_
*754 _582_
*755 _583_
*756 _584_
*757 _585_
*758 _586_
*759 _587_
*760 _588_
*761 _589_
*762 _590_
*763 _591_
*764 _592_
*765 _593_
*766 _594_
*767 _595_
*768 _596_
*769 _597_
*770 _598_
*771 _599_
*772 _600_
*773 _601_
*774 _602_
*775 _603_
*776 _604_
*777 _605_
*778 _606_
*779 _607_
*780 _608_
*781 _609_
*782 _610_
*783 _611_
*784 _612_
*785 _613_
*786 _614_
*787 _615_
*788 _616_
*789 _617_
*790 _618_
*791 _619_
*792 _620_
*793 _621_
*794 _622_
*795 _623_
*796 _624_
*797 _625_
*798 _626_
*799 _627_
*800 _628_
*801 _629_
*802 _630_
*803 _631_
*804 _632_
*805 _633_
*806 _634_
*807 _635_
*808 _636_
*809 _637_
*810 _638_
*811 _639_
*812 _640_
*813 _641_
*814 _642_
*815 _643_
*816 _644_
*817 _645_
*818 _646_
*819 _647_
*820 _648_
*821 _649_
*822 _650_
*823 _651_
*824 _652_
*825 _653_
*826 _654_
*827 _655_
*828 _656_
*829 _657_
*830 _658_
*831 _659_
*832 _660_
*833 _661_
*834 _662_
*835 _663_
*836 _664_
*837 _665_
*838 _666_
*839 _667_
*840 _668_
*841 _669_
*842 _670_
*843 _671_
*844 _672_
*845 _673_
*846 _674_
*847 _675_
*848 _676_
*849 _677_
*850 _678_
*851 _679_
*852 _680_
*853 _681_
*854 _682_
*855 _683_
*856 _684_
*857 _685_
*858 _686_
*859 _687_
*860 _688_
*861 _689_
*862 _690_
*863 _691_
*864 _692_
*865 _693_
*866 _694_
*867 _695_
*868 _696_
*869 _697_
*870 _698_
*871 _699_
*872 _700_
*873 _701_
*874 _702_
*875 _703_
*876 _704_
*877 _705_
*878 _706_
*879 _707_
*880 _708_
*881 _709_
*882 _710_
*883 _711_
*884 _712_
*885 _713_
*886 _714_
*887 _715_
*888 _716_
*889 _717_
*890 _718_
*891 _719_
*892 _720_
*893 _721_
*894 _722_
*895 _723_
*896 _724_
*897 _725_
*898 _726_
*899 _727_
*900 _728_
*901 _729_
*902 _730_
*903 _731_
*904 _732_
*905 _733_
*906 _734_
*907 _735_
*908 _736_
*909 _737_
*910 _738_
*911 _739_
*912 _740_
*913 _741_
*914 _742_
*915 _743_
*916 _744_
*917 _745_
*918 _746_
*919 _747_
*920 _748_
*921 _749_
*922 _750_
*923 _751_
*924 _752_
*925 _753_
*926 _754_
*927 _755_
*928 _756_
*929 _757_
*930 _758_
*931 _759_
*932 _760_
*933 _761_
*934 _762_
*935 _763_
*936 _764_
*937 _765_
*938 _766_
*939 _767_
*940 _768_
*941 _769_
*942 _770_
*943 _771_
*944 _772_
*945 _773_
*946 _774_
*947 _775_
*948 _776_
*949 _777_
*950 _778_
*951 _779_
*952 _780_
*953 _781_
*954 _782_
*955 _783_
*956 _784_
*957 _785_
*958 _786_
*959 _787_
*960 _788_
*961 _789_
*962 _790_
*963 _791_
*964 _792_
*965 _793_
*966 _794_
*967 _795_
*968 _796_
*969 _797_
*970 _798_
*971 _799_
*972 _800_
*973 _801_
*974 _802_
*975 _803_
*976 _804_
*977 _805_
*978 _806_
*979 _807_
*980 _808_
*981 _809_
*982 _810_
*983 _811_
*984 _812_
*985 _813_
*986 _814_
*987 _815_
*988 _816_
*989 _817_
*990 _818_
*991 _819_
*992 _820_
*993 _821_
*994 _822_
*995 _823_
*996 _824_
*997 _825_
*998 _826_
*999 _827_
*1000 _828_
*1001 _829_
*1002 _830_
*1003 _831_
*1004 _832_
*1005 _833_
*1006 _834_
*1007 _835_
*1008 _836_
*1009 _837_
*1010 _838_
*1011 _839_
*1012 _840_
*1013 _841_
*1014 _842_
*1015 _843_
*1016 _844_
*1017 _845_
*1018 _846_
*1019 _847_
*1020 _848_
*1021 _849_
*1022 _850_
*1023 _851_
*1024 _852_
*1025 _853_
*1026 _854_
*1027 _855_
*1028 _856_
*1029 _857_
*1030 _858_
*1031 _859_
*1032 _860_
*1033 _861_
*1034 _862_
*1035 _863_
*1036 _864_
*1037 _865_
*1038 _866_
*1039 _867_
*1040 _868_
*1041 _869_
*1042 _870_
*1043 _871_
*1044 _872_
*1045 _873_
*1046 _874_
*1047 _875_
*1048 _876_
*1049 _877_
*1050 _878_
*1051 _879_
*1052 _880_
*1053 _881_
*1054 _882_
*1055 _883_
*1056 _884_
*1057 _885_
*1058 _886_
*1059 _887_
*1060 _888_
*1061 _889_
*1062 _890_
*1063 _891_
*1064 _892_
*1065 _893_
*1066 _894_
*1067 _895_
*1068 _896_
*1069 _897_
*1070 _898_
*1071 _899_
*1072 _900_
*1073 _901_
*1074 _902_
*1075 _903_
*1076 _904_
*1077 _905_
*1078 _906_
*1079 _907_
*1080 _908_
*1081 _909_
*1082 _910_
*1083 _911_
*1084 _912_
*1085 _913_
*1086 _914_
*1087 _915_
*1088 _916_
*1089 _917_
*1090 _918_
*1091 _919_
*1092 _920_
*1093 _921_
*1094 _922_
*1095 _923_
*1096 _924_
*1097 _925_
*1098 _926_
*1099 _927_
*1100 _928_
*1101 _929_
*1102 _930_
*1103 _931_
*1104 _932_
*1105 _933_
*1106 _934_
*1107 _935_
*1108 _936_
*1109 _937_
*1110 _938_
*1111 _939_
*1112 _940_
*1113 _941_
*1114 _942_
*1115 _943_
*1116 _944_
*1117 _945_
*1118 _946_
*1119 _947_
*1120 _948_
*1121 _949_
*1122 _950_
*1123 _951_
*1124 _952_
*1125 _953_
*1126 ctrl\.state\.out\[0\]\$_DFF_P_
*1127 ctrl\.state\.out\[1\]\$_DFF_P_
*1128 ctrl\.state\.out\[2\]\$_DFF_P_
*1129 dpath\.a_reg\.out\[0\]\$_DFFE_PP_
*1130 dpath\.a_reg\.out\[10\]\$_DFFE_PP_
*1131 dpath\.a_reg\.out\[11\]\$_DFFE_PP_
*1132 dpath\.a_reg\.out\[12\]\$_DFFE_PP_
*1133 dpath\.a_reg\.out\[13\]\$_DFFE_PP_
*1134 dpath\.a_reg\.out\[14\]\$_DFFE_PP_
*1135 dpath\.a_reg\.out\[15\]\$_DFFE_PP_
*1136 dpath\.a_reg\.out\[1\]\$_DFFE_PP_
*1137 dpath\.a_reg\.out\[2\]\$_DFFE_PP_
*1138 dpath\.a_reg\.out\[3\]\$_DFFE_PP_
*1139 dpath\.a_reg\.out\[4\]\$_DFFE_PP_
*1140 dpath\.a_reg\.out\[5\]\$_DFFE_PP_
*1141 dpath\.a_reg\.out\[6\]\$_DFFE_PP_
*1142 dpath\.a_reg\.out\[7\]\$_DFFE_PP_
*1143 dpath\.a_reg\.out\[8\]\$_DFFE_PP_
*1144 dpath\.a_reg\.out\[9\]\$_DFFE_PP_
*1145 dpath\.b_reg\.out\[0\]\$_DFFE_PP_
*1146 dpath\.b_reg\.out\[10\]\$_DFFE_PP_
*1147 dpath\.b_reg\.out\[11\]\$_DFFE_PP_
*1148 dpath\.b_reg\.out\[12\]\$_DFFE_PP_
*1149 dpath\.b_reg\.out\[13\]\$_DFFE_PP_
*1150 dpath\.b_reg\.out\[14\]\$_DFFE_PP_
*1151 dpath\.b_reg\.out\[15\]\$_DFFE_PP_
*1152 dpath\.b_reg\.out\[1\]\$_DFFE_PP_
*1153 dpath\.b_reg\.out\[2\]\$_DFFE_PP_
*1154 dpath\.b_reg\.out\[3\]\$_DFFE_PP_
*1155 dpath\.b_reg\.out\[4\]\$_DFFE_PP_
*1156 dpath\.b_reg\.out\[5\]\$_DFFE_PP_
*1157 dpath\.b_reg\.out\[6\]\$_DFFE_PP_
*1158 dpath\.b_reg\.out\[7\]\$_DFFE_PP_
*1159 dpath\.b_reg\.out\[8\]\$_DFFE_PP_
*1160 dpath\.b_reg\.out\[9\]\$_DFFE_PP_
*1161 PHY_EDGE_ROW_0_Right_0
*1162 PHY_EDGE_ROW_1_Right_1
*1163 PHY_EDGE_ROW_2_Right_2
*1164 PHY_EDGE_ROW_3_Right_3
*1165 PHY_EDGE_ROW_4_Right_4
*1166 PHY_EDGE_ROW_5_Right_5
*1167 PHY_EDGE_ROW_6_Right_6
*1168 PHY_EDGE_ROW_7_Right_7
*1169 PHY_EDGE_ROW_8_Right_8
*1170 PHY_EDGE_ROW_9_Right_9
*1171 PHY_EDGE_ROW_10_Right_10
*1172 PHY_EDGE_ROW_11_Right_11
*1173 PHY_EDGE_ROW_12_Right_12
*1174 PHY_EDGE_ROW_13_Right_13
*1175 PHY_EDGE_ROW_14_Right_14
*1176 PHY_EDGE_ROW_15_Right_15
*1177 PHY_EDGE_ROW_16_Right_16
*1178 PHY_EDGE_ROW_17_Right_17
*1179 PHY_EDGE_ROW_18_Right_18
*1180 PHY_EDGE_ROW_19_Right_19
*1181 PHY_EDGE_ROW_20_Right_20
*1182 PHY_EDGE_ROW_21_Right_21
*1183 PHY_EDGE_ROW_22_Right_22
*1184 PHY_EDGE_ROW_23_Right_23
*1185 PHY_EDGE_ROW_0_Left_24
*1186 PHY_EDGE_ROW_1_Left_25
*1187 PHY_EDGE_ROW_2_Left_26
*1188 PHY_EDGE_ROW_3_Left_27
*1189 PHY_EDGE_ROW_4_Left_28
*1190 PHY_EDGE_ROW_5_Left_29
*1191 PHY_EDGE_ROW_6_Left_30
*1192 PHY_EDGE_ROW_7_Left_31
*1193 PHY_EDGE_ROW_8_Left_32
*1194 PHY_EDGE_ROW_9_Left_33
*1195 PHY_EDGE_ROW_10_Left_34
*1196 PHY_EDGE_ROW_11_Left_35
*1197 PHY_EDGE_ROW_12_Left_36
*1198 PHY_EDGE_ROW_13_Left_37
*1199 PHY_EDGE_ROW_14_Left_38
*1200 PHY_EDGE_ROW_15_Left_39
*1201 PHY_EDGE_ROW_16_Left_40
*1202 PHY_EDGE_ROW_17_Left_41
*1203 PHY_EDGE_ROW_18_Left_42
*1204 PHY_EDGE_ROW_19_Left_43
*1205 PHY_EDGE_ROW_20_Left_44
*1206 PHY_EDGE_ROW_21_Left_45
*1207 PHY_EDGE_ROW_22_Left_46
*1208 PHY_EDGE_ROW_23_Left_47
*1209 input1
*1210 input2
*1211 input3
*1212 input4
*1213 input5
*1214 input6
*1215 input7
*1216 input8
*1217 input9
*1218 input10
*1219 input11
*1220 input12
*1221 input13
*1222 input14
*1223 input15
*1224 input16
*1225 input17
*1226 input18
*1227 input19
*1228 input20
*1229 input21
*1230 input22
*1231 input23
*1232 input24
*1233 input25
*1234 input26
*1235 input27
*1236 input28
*1237 input29
*1238 input30
*1239 input31
*1240 input32
*1241 input33
*1242 input34
*1243 input35
*1244 output36
*1245 output37
*1246 output38
*1247 output39
*1248 output40
*1249 output41
*1250 output42
*1251 output43
*1252 output44
*1253 output45
*1254 output46
*1255 output47
*1256 output48
*1257 output49
*1258 output50
*1259 output51
*1260 output52
*1261 output53
*1262 clkbuf_0_clk
*1263 clkbuf_2_0__f_clk
*1264 clkbuf_2_1__f_clk
*1265 clkbuf_2_2__f_clk
*1266 clkbuf_2_3__f_clk
*1267 clkload0
*1268 clkload1
*1269 clkload2
*1270 rebuffer1
*1271 rebuffer2
*1272 rebuffer3
*1273 rebuffer4
*1274 rebuffer5
*1275 rebuffer6
*1276 rebuffer7
*1277 rebuffer8
*1278 rebuffer18
*1279 rebuffer19
*1280 rebuffer22
*1281 rebuffer23
*1282 rebuffer24
*1283 rebuffer38
*1284 rebuffer43
*1285 rebuffer49
*1286 rebuffer13
*1287 rebuffer21
*1288 rebuffer36
*1289 rebuffer37
*1290 rebuffer39
*1291 rebuffer40
*1292 rebuffer41
*1293 FILLER_0_1
*1294 FILLER_0_33
*1295 FILLER_0_35
*1296 FILLER_0_39
*1297 FILLER_0_43
*1298 FILLER_0_47
*1299 FILLER_0_49
*1300 FILLER_0_53
*1301 FILLER_0_91
*1302 FILLER_0_98
*1303 FILLER_0_109
*1304 FILLER_0_149
*1305 FILLER_0_165
*1306 FILLER_0_173
*1307 FILLER_0_177
*1308 FILLER_1_1
*1309 FILLER_1_17
*1310 FILLER_1_25
*1311 FILLER_1_44
*1312 FILLER_1_48
*1313 FILLER_1_110
*1314 FILLER_1_140
*1315 FILLER_1_172
*1316 FILLER_1_176
*1317 FILLER_1_178
*1318 FILLER_2_1
*1319 FILLER_2_17
*1320 FILLER_2_19
*1321 FILLER_2_37
*1322 FILLER_2_59
*1323 FILLER_2_74
*1324 FILLER_2_153
*1325 FILLER_2_160
*1326 FILLER_2_176
*1327 FILLER_2_178
*1328 FILLER_3_1
*1329 FILLER_3_29
*1330 FILLER_3_38
*1331 FILLER_3_54
*1332 FILLER_3_59
*1333 FILLER_3_61
*1334 FILLER_3_137
*1335 FILLER_3_169
*1336 FILLER_4_1
*1337 FILLER_4_9
*1338 FILLER_4_13
*1339 FILLER_4_15
*1340 FILLER_4_29
*1341 FILLER_4_40
*1342 FILLER_4_52
*1343 FILLER_4_82
*1344 FILLER_4_106
*1345 FILLER_4_133
*1346 FILLER_4_172
*1347 FILLER_5_1
*1348 FILLER_5_9
*1349 FILLER_5_13
*1350 FILLER_5_15
*1351 FILLER_5_43
*1352 FILLER_5_59
*1353 FILLER_5_68
*1354 FILLER_5_73
*1355 FILLER_5_79
*1356 FILLER_5_169
*1357 FILLER_6_1
*1358 FILLER_6_3
*1359 FILLER_6_7
*1360 FILLER_6_15
*1361 FILLER_6_23
*1362 FILLER_6_27
*1363 FILLER_6_33
*1364 FILLER_6_38
*1365 FILLER_6_46
*1366 FILLER_6_51
*1367 FILLER_6_59
*1368 FILLER_6_74
*1369 FILLER_6_114
*1370 FILLER_7_1
*1371 FILLER_7_22
*1372 FILLER_7_38
*1373 FILLER_7_42
*1374 FILLER_7_44
*1375 FILLER_7_62
*1376 FILLER_7_69
*1377 FILLER_7_85
*1378 FILLER_7_89
*1379 FILLER_7_93
*1380 FILLER_7_121
*1381 FILLER_8_4
*1382 FILLER_8_6
*1383 FILLER_8_17
*1384 FILLER_8_20
*1385 FILLER_8_27
*1386 FILLER_8_31
*1387 FILLER_8_53
*1388 FILLER_8_85
*1389 FILLER_8_87
*1390 FILLER_8_97
*1391 FILLER_9_4
*1392 FILLER_9_45
*1393 FILLER_9_52
*1394 FILLER_9_66
*1395 FILLER_9_90
*1396 FILLER_9_94
*1397 FILLER_9_166
*1398 FILLER_9_178
*1399 FILLER_10_1
*1400 FILLER_10_8
*1401 FILLER_10_20
*1402 FILLER_10_27
*1403 FILLER_10_50
*1404 FILLER_10_58
*1405 FILLER_10_75
*1406 FILLER_10_83
*1407 FILLER_10_151
*1408 FILLER_11_18
*1409 FILLER_11_26
*1410 FILLER_11_60
*1411 FILLER_11_64
*1412 FILLER_11_68
*1413 FILLER_11_82
*1414 FILLER_11_84
*1415 FILLER_11_96
*1416 FILLER_11_118
*1417 FILLER_12_4
*1418 FILLER_12_12
*1419 FILLER_12_16
*1420 FILLER_12_38
*1421 FILLER_12_60
*1422 FILLER_12_65
*1423 FILLER_12_72
*1424 FILLER_12_76
*1425 FILLER_12_81
*1426 FILLER_12_89
*1427 FILLER_12_178
*1428 FILLER_13_1
*1429 FILLER_13_30
*1430 FILLER_13_34
*1431 FILLER_13_42
*1432 FILLER_13_66
*1433 FILLER_13_74
*1434 FILLER_13_78
*1435 FILLER_13_80
*1436 FILLER_13_169
*1437 FILLER_13_177
*1438 FILLER_14_1
*1439 FILLER_14_8
*1440 FILLER_14_23
*1441 FILLER_14_27
*1442 FILLER_14_32
*1443 FILLER_14_53
*1444 FILLER_14_68
*1445 FILLER_14_72
*1446 FILLER_14_74
*1447 FILLER_14_86
*1448 FILLER_14_107
*1449 FILLER_14_123
*1450 FILLER_14_128
*1451 FILLER_14_147
*1452 FILLER_14_165
*1453 FILLER_14_173
*1454 FILLER_14_177
*1455 FILLER_15_1
*1456 FILLER_15_17
*1457 FILLER_15_28
*1458 FILLER_15_38
*1459 FILLER_15_64
*1460 FILLER_15_72
*1461 FILLER_15_77
*1462 FILLER_15_128
*1463 FILLER_15_132
*1464 FILLER_15_151
*1465 FILLER_15_167
*1466 FILLER_15_175
*1467 FILLER_16_1
*1468 FILLER_16_5
*1469 FILLER_16_13
*1470 FILLER_16_19
*1471 FILLER_16_21
*1472 FILLER_16_32
*1473 FILLER_16_53
*1474 FILLER_16_66
*1475 FILLER_16_103
*1476 FILLER_16_109
*1477 FILLER_16_115
*1478 FILLER_16_117
*1479 FILLER_16_125
*1480 FILLER_16_148
*1481 FILLER_16_164
*1482 FILLER_16_172
*1483 FILLER_16_176
*1484 FILLER_16_178
*1485 FILLER_17_1
*1486 FILLER_17_9
*1487 FILLER_17_13
*1488 FILLER_17_17
*1489 FILLER_17_38
*1490 FILLER_17_46
*1491 FILLER_17_65
*1492 FILLER_17_69
*1493 FILLER_17_73
*1494 FILLER_17_81
*1495 FILLER_17_102
*1496 FILLER_17_110
*1497 FILLER_17_118
*1498 FILLER_17_120
*1499 FILLER_17_140
*1500 FILLER_17_172
*1501 FILLER_17_176
*1502 FILLER_17_178
*1503 FILLER_18_1
*1504 FILLER_18_17
*1505 FILLER_18_21
*1506 FILLER_18_23
*1507 FILLER_18_27
*1508 FILLER_18_29
*1509 FILLER_18_38
*1510 FILLER_18_52
*1511 FILLER_18_60
*1512 FILLER_18_77
*1513 FILLER_18_91
*1514 FILLER_18_100
*1515 FILLER_18_102
*1516 FILLER_18_106
*1517 FILLER_18_110
*1518 FILLER_18_125
*1519 FILLER_18_136
*1520 FILLER_18_168
*1521 FILLER_18_176
*1522 FILLER_18_178
*1523 FILLER_19_1
*1524 FILLER_19_17
*1525 FILLER_19_41
*1526 FILLER_19_60
*1527 FILLER_19_65
*1528 FILLER_19_69
*1529 FILLER_19_77
*1530 FILLER_19_81
*1531 FILLER_19_98
*1532 FILLER_19_106
*1533 FILLER_19_124
*1534 FILLER_19_133
*1535 FILLER_19_165
*1536 FILLER_19_173
*1537 FILLER_19_177
*1538 FILLER_20_1
*1539 FILLER_20_29
*1540 FILLER_20_36
*1541 FILLER_20_38
*1542 FILLER_20_41
*1543 FILLER_20_57
*1544 FILLER_20_61
*1545 FILLER_20_76
*1546 FILLER_20_91
*1547 FILLER_20_98
*1548 FILLER_20_106
*1549 FILLER_20_108
*1550 FILLER_20_118
*1551 FILLER_20_122
*1552 FILLER_20_124
*1553 FILLER_20_139
*1554 FILLER_20_171
*1555 FILLER_21_1
*1556 FILLER_21_17
*1557 FILLER_21_23
*1558 FILLER_21_29
*1559 FILLER_21_31
*1560 FILLER_21_47
*1561 FILLER_21_51
*1562 FILLER_21_59
*1563 FILLER_21_64
*1564 FILLER_21_66
*1565 FILLER_21_72
*1566 FILLER_21_85
*1567 FILLER_21_98
*1568 FILLER_21_111
*1569 FILLER_21_113
*1570 FILLER_21_124
*1571 FILLER_21_156
*1572 FILLER_21_172
*1573 FILLER_21_176
*1574 FILLER_21_178
*1575 FILLER_22_1
*1576 FILLER_22_17
*1577 FILLER_22_55
*1578 FILLER_22_128
*1579 FILLER_22_160
*1580 FILLER_22_176
*1581 FILLER_22_178
*1582 FILLER_23_1
*1583 FILLER_23_17
*1584 FILLER_23_21
*1585 FILLER_23_23
*1586 FILLER_23_30
*1587 FILLER_23_38
*1588 FILLER_23_40
*1589 FILLER_23_50
*1590 FILLER_23_58
*1591 FILLER_23_62
*1592 FILLER_23_70
*1593 FILLER_23_77
*1594 FILLER_23_102
*1595 FILLER_23_107
*1596 FILLER_23_117
*1597 FILLER_23_121
*1598 FILLER_23_153
*1599 FILLER_23_169
*1600 FILLER_23_177

*PORTS
clk I
req_msg[0] I
req_msg[10] I
req_msg[11] I
req_msg[12] I
req_msg[13] I
req_msg[14] I
req_msg[15] I
req_msg[16] I
req_msg[17] I
req_msg[18] I
req_msg[19] I
req_msg[1] I
req_msg[20] I
req_msg[21] I
req_msg[22] I
req_msg[23] I
req_msg[24] I
req_msg[25] I
req_msg[26] I
req_msg[27] I
req_msg[28] I
req_msg[29] I
req_msg[2] I
req_msg[30] I
req_msg[31] I
req_msg[3] I
req_msg[4] I
req_msg[5] I
req_msg[6] I
req_msg[7] I
req_msg[8] I
req_msg[9] I
req_rdy O
req_val I
reset I
resp_msg[0] O
resp_msg[10] O
resp_msg[11] O
resp_msg[12] O
resp_msg[13] O
resp_msg[14] O
resp_msg[15] O
resp_msg[1] O
resp_msg[2] O
resp_msg[3] O
resp_msg[4] O
resp_msg[5] O
resp_msg[6] O
resp_msg[7] O
resp_msg[8] O
resp_msg[9] O
resp_rdy I
resp_val O

*D_NET *1 0.000312058
*CONN
*I *1126:D I *D DFF_X1
*I *693:ZN O *D OAI21_X1
*CAP
1 *1126:D 6.72685e-05
2 *693:ZN 6.72685e-05
3 *1126:D *685:A2 2.80745e-05
4 *1126:D *686:B2 2.94455e-05
5 *1126:D *693:A 6.04176e-05
6 *1126:D *694:A1 0
7 *1126:D *1128:D 0
8 *1126:D *574:10 5.95829e-05
*RES
1 *693:ZN *1126:D 29.9286 
*END

*D_NET *2 0.000177802
*CONN
*I *1127:D I *D DFF_X1
*I *696:ZN O *D OAI21_X1
*CAP
1 *1127:D 8.67551e-05
2 *696:ZN 8.67551e-05
3 *1127:D *696:A 3.65322e-06
4 *1127:D *1128:D 0
5 *1127:D *68:45 0
6 *1127:D *488:8 0
7 *1127:D *610:8 6.38328e-07
*RES
1 *696:ZN *1127:D 19.3929 
*END

*D_NET *3 0.000279298
*CONN
*I *1128:D I *D DFF_X1
*I *686:ZN O *D OAI22_X1
*CAP
1 *1128:D 0.000124645
2 *686:ZN 0.000124645
3 *1128:D *685:A2 3.19164e-07
4 *1128:D *686:B1 3.88456e-06
5 *1128:D *689:B2 2.55787e-06
6 *1128:D *693:A 8.43215e-07
7 *1128:D *693:B2 0
8 *1128:D *696:B1 1.7326e-06
9 *1128:D *1128:CK 0
10 *1128:D *1241:A 1.32323e-05
11 *1128:D *1243:A 0
12 *1128:D *1244:A 3.65322e-06
13 *1128:D *609:6 3.78437e-06
14 *1128:D *610:8 0
15 *1126:D *1128:D 0
16 *1127:D *1128:D 0
*RES
1 *686:ZN *1128:D 23.3214 
*END

*D_NET *4 0.000459377
*CONN
*I *807:A2 I *D NAND2_X2
*I *687:A I *D BUF_X4
*I *1126:QN O *D DFF_X1
*CAP
1 *807:A2 5.64316e-05
2 *687:A 6.09993e-06
3 *1126:QN 1.60419e-05
4 *4:8 7.85735e-05
5 *687:A *680:A 2.52965e-06
6 *687:A *407:42 7.19036e-06
7 *807:A2 *807:A1 7.72537e-06
8 *807:A2 *813:A 0
9 *807:A2 *1063:A1 3.09143e-06
10 *807:A2 *58:21 4.05561e-05
11 *807:A2 *58:32 8.48747e-05
12 *807:A2 *181:12 8.37533e-07
13 *807:A2 *631:118 2.34132e-05
14 *4:8 *58:10 4.24381e-05
15 *4:8 *58:21 2.31984e-05
16 *4:8 *631:118 6.63757e-05
*RES
1 *1126:QN *4:8 13.6429 
2 *4:8 *687:A 10.75 
3 *4:8 *807:A2 17.7857 
*END

*D_NET *5 0.000131057
*CONN
*I *1129:D I *D DFF_X1
*I *819:ZN O *D NAND2_X1
*CAP
1 *1129:D 5.1447e-05
2 *819:ZN 5.1447e-05
3 *1129:D *818:A 1.54553e-06
4 *1129:D *819:A1 2.75346e-06
5 *1129:D *819:A2 7.72792e-06
6 *1129:D *68:16 4.26671e-06
7 *1129:D *631:52 1.18699e-05
*RES
1 *819:ZN *1129:D 16.1071 
*END

*D_NET *6 0.000207519
*CONN
*I *1130:D I *D DFF_X1
*I *841:ZN O *D NAND2_X1
*CAP
1 *1130:D 8.32635e-05
2 *841:ZN 8.32635e-05
3 *1130:D *840:A 2.3817e-05
4 *1130:D *840:B2 9.5257e-06
5 *1130:D *1066:A2 7.00661e-06
6 *1130:D *1130:CK 6.38328e-07
7 *1130:D *68:45 4.55949e-09
*RES
1 *841:ZN *1130:D 29.6071 
*END

*D_NET *7 0.000100792
*CONN
*I *1131:D I *D DFF_X1
*I *890:ZN O *D NAND2_X1
*CAP
1 *1131:D 4.60261e-05
2 *890:ZN 4.60261e-05
3 *1131:D *890:A1 5.33965e-06
4 *1131:D *890:A2 3.19164e-07
5 *1131:D *1131:CK 2.16072e-07
6 *1131:D *68:72 0
7 *1131:D *190:77 2.86475e-06
*RES
1 *890:ZN *1131:D 14.6786 
*END

*D_NET *8 0.000305437
*CONN
*I *1132:D I *D DFF_X1
*I *910:ZN O *D NAND2_X1
*CAP
1 *1132:D 7.35762e-05
2 *910:ZN 7.35762e-05
3 *1132:D *935:A2 2.54095e-06
4 *1132:D *938:A1 0
5 *1132:D *1131:CK 7.72537e-06
6 *1132:D *1133:CK 2.84765e-06
7 *1132:D *187:117 2.26304e-06
8 *1132:D *190:87 3.65322e-06
9 *1132:D *632:60 0.000133357
10 *1132:D *632:71 5.89758e-06
*RES
1 *910:ZN *1132:D 30.5 
*END

*D_NET *9 0.000226937
*CONN
*I *1133:D I *D DFF_X1
*I *938:ZN O *D NAND2_X1
*CAP
1 *1133:D 7.33557e-05
2 *938:ZN 7.33557e-05
3 *1133:D *937:B2 2.51685e-05
4 *1133:D *1133:CK 2.50695e-05
5 *1133:D *494:8 2.99872e-05
*RES
1 *938:ZN *1133:D 29.75 
*END

*D_NET *10 0.000208003
*CONN
*I *1134:D I *D DFF_X1
*I *959:ZN O *D NAND2_X1
*CAP
1 *1134:D 7.4413e-05
2 *959:ZN 7.4413e-05
3 *1134:D *957:A2 7.40328e-06
4 *1134:D *958:B2 3.83783e-05
5 *1134:D *959:A2 9.74193e-06
6 *1134:D *979:A1 0
7 *1134:D *1213:A 3.65322e-06
*RES
1 *959:ZN *1134:D 19.7857 
*END

*D_NET *11 0.000193266
*CONN
*I *1135:D I *D DFF_X2
*I *979:ZN O *D NAND2_X1
*CAP
1 *1135:D 5.79711e-05
2 *979:ZN 5.79711e-05
3 *1135:D *978:B2 2.45181e-05
4 *1135:D *979:A2 5.28055e-05
*RES
1 *979:ZN *1135:D 26.9643 
*END

*D_NET *12 0.000429539
*CONN
*I *1136:D I *D DFF_X1
*I *987:ZN O *D NAND2_X1
*CAP
1 *1136:D 0.000162335
2 *987:ZN 0.000162335
3 *1136:D *816:A 1.74934e-05
4 *1136:D *986:A 2.70821e-06
5 *1136:D *987:A1 2.75346e-06
6 *1136:D *987:A2 1.32348e-05
7 *1136:D *993:B2 9.80887e-06
8 *1136:D *190:8 1.26998e-05
9 *1136:D *348:18 2.87703e-06
10 *1136:D *499:10 3.82041e-05
11 *1136:D *631:63 0
12 *1136:D *631:69 5.0891e-06
*RES
1 *987:ZN *1136:D 27.4643 
*END

*D_NET *13 0.000240212
*CONN
*I *1137:D I *D DFF_X1
*I *994:ZN O *D NAND2_X1
*CAP
1 *1137:D 0.000110896
2 *994:ZN 0.000110896
3 *1137:D *986:B2 1.11357e-05
4 *1137:D *994:A2 6.21255e-06
5 *1137:D *1091:B 0
6 *1137:D *1137:CK 0
7 *1137:D *1217:A 1.07198e-06
8 *1137:D *1220:A 0
*RES
1 *994:ZN *1137:D 31.6429 
*END

*D_NET *14 0.000258402
*CONN
*I *1138:D I *D DFF_X1
*I *1001:ZN O *D NAND2_X1
*CAP
1 *1138:D 0.00012049
2 *1001:ZN 0.00012049
3 *1138:D *1001:A2 6.32461e-06
4 *1138:D *1288:A 2.77917e-07
5 *1138:D *189:41 0
6 *1138:D *498:23 1.08184e-05
7 *1138:D *631:69 0
8 *1138:D *631:78 0
*RES
1 *1001:ZN *1138:D 32.4643 
*END

*D_NET *15 0.000593739
*CONN
*I *1139:D I *D DFF_X1
*I *1008:ZN O *D NAND2_X1
*CAP
1 *1139:D 7.63145e-05
2 *1008:ZN 7.63145e-05
3 *1139:D *1005:A1 2.07643e-05
4 *1139:D *1007:B2 0.000182088
5 *1139:D *1008:A1 4.82325e-06
6 *1139:D *1103:B2 0.000118946
7 *1139:D *47:12 5.05143e-05
8 *1139:D *105:8 6.39741e-05
*RES
1 *1008:ZN *1139:D 35.8572 
*END

*D_NET *16 0.000433823
*CONN
*I *1140:D I *D DFF_X1
*I *1018:ZN O *D NAND2_X1
*CAP
1 *1140:D 0.000121203
2 *1018:ZN 0.000121203
3 *1140:D *674:A 7.96559e-05
4 *1140:D *1015:A1 4.68658e-06
5 *1140:D *1016:A1 4.79678e-05
6 *1140:D *1018:A1 7.19036e-06
7 *1140:D *1018:A2 2.39679e-06
8 *1140:D *1025:A2 5.41978e-06
9 *1140:D *1110:A2 2.29071e-05
10 *1140:D *1111:A 1.53818e-05
11 *1140:D *369:24 0